* C:\Users\mihir\Python\TransferFuncCalc\LTSpice\sample.asc
V1 N001 0 5
L1 N001 N002 1µ
C1 N002 0 2µ
R1 N002 0 10
I1 N002 0 2
.backanno
.end
